REMARK  3 active torsions:
REMARK  status: ('A' for Active; 'I' for Inactive)
REMARK    1  A    between atoms: O_1  and  C_3 
REMARK    2  A    between atoms: C_10  and  C_4 
REMARK    3  A    between atoms: C_14  and  C_9 
ROOT
HETATM    1  O   UNK     0       0.008  -1.953  -0.001  0.00  0.00    -0.360 OA
HETATM    2  H   UNK     0       0.364  -2.224  -0.865  0.00  0.00     0.217 HD
ENDROOT
BRANCH   1   3
HETATM    3  C   UNK     0      -0.005  -0.589  -0.000  0.00  0.00     0.079 A 
HETATM    4  C   UNK     0      -1.181   0.119   0.000  0.00  0.00    -0.016 A 
HETATM    5  C   UNK     0      -1.232   1.492  -0.001  0.00  0.00     0.017 A 
HETATM    6  C   UNK     0      -0.031   2.201  -0.002  0.00  0.00    -0.061 A 
HETATM    7  C   UNK     0       1.184   1.515  -0.003  0.00  0.00     0.017 A 
HETATM    8  C   UNK     0      -0.044   3.692  -0.003  0.00  0.00     0.048 C 
HETATM    9  C   UNK     0       1.197   0.120  -0.002  0.00  0.00    -0.016 A 
BRANCH   4  10
HETATM   10  C   UNK     0      -2.516  -0.643   0.001  0.00  0.00    -0.021 C 
HETATM   11  C   UNK     0      -3.688   0.362   0.001  0.00  0.00     0.019 C 
HETATM   12  C   UNK     0      -2.607  -1.530   1.262  0.00  0.00     0.019 C 
HETATM   13  C   UNK     0      -2.708  -1.569  -1.222  0.00  0.00     0.019 C 
ENDBRANCH   4  10
BRANCH   9  14
HETATM   14  C   UNK     0       2.507  -0.597  -0.002  0.00  0.00    -0.021 C 
HETATM   15  C   UNK     0       2.507  -1.992   0.704  0.00  0.00     0.019 C 
HETATM   16  C   UNK     0       3.002  -0.866  -1.457  0.00  0.00     0.019 C 
HETATM   17  C   UNK     0       3.606   0.238   0.723  0.00  0.00     0.019 C 
ENDBRANCH   9  14
ENDBRANCH   1   3
TORSDOF 3
